435
Atoms. Timestep: 0
C 0.148 -0.342 0.449
H 1.093 -0.153 0.621
C 0.055 1.296 -1.279
H 1.004 1.484 -1.131
O -0.528 0.807 -0.055
C -0.032 -1.499 -0.536
H -0.972 -1.774 -0.567
O 0.766 -2.559 -0.003
H 0.581 -2.603 0.955
C 0.439 -1.116 -1.918
H 1.42 -1.078 -1.91
O 0.032 -2.127 -2.864
H 0.593 -1.956 -3.651
C -0.082 0.244 -2.336
H -1.041 0.143 -2.517
O 0.535 0.701 -3.554
H 0.519 -0.03 -4.223
C -0.662 2.599 -1.588
H -1.576 2.411 -1.846
H -0.676 3.155 -0.794
O -0.001 3.284 -2.637
H -0.569 4.012 -2.958
C -0.148 0.342 5.639
H -1.093 0.153 5.811
C -0.055 -1.296 3.911
H -1.004 -1.484 4.059
O 0.528 -0.807 5.135
C 0.032 1.499 4.654
H 0.972 1.774 4.623
O -0.766 2.559 5.187
H -0.581 2.603 6.145
C -0.439 1.116 3.272
H -1.42 1.078 3.28
O -0.032 2.127 2.326
H -0.593 1.956 1.539
C 0.082 -0.244 2.855
H 1.041 -0.143 2.673
O -0.535 -0.701 1.636
C 0.662 -2.599 3.602
H 1.576 -2.411 3.344
H 0.676 -3.155 4.396
O 0.001 -3.284 2.553
H 0.569 -4.012 2.232
C 0.148 -0.342 10.829
H 1.093 -0.153 11.001
C 0.055 1.296 9.101
H 1.004 1.484 9.249
O -0.528 0.807 10.325
C -0.032 -1.499 9.844
H -0.972 -1.774 9.813
O 0.766 -2.559 10.377
H 0.581 -2.603 11.335
C 0.439 -1.116 8.462
H 1.42 -1.078 8.47
O 0.032 -2.127 7.516
H 0.593 -1.956 6.729
C -0.082 0.244 8.045
H -1.041 0.143 7.863
O 0.535 0.701 6.826
C -0.662 2.599 8.792
H -1.576 2.411 8.534
H -0.676 3.155 9.586
O -0.001 3.284 7.743
H -0.569 4.012 7.422
C -0.148 0.342 16.019
H -1.093 0.153 16.191
O 0.451 0.632 17.239
H 1.294 0.979 17.044
C -0.055 -1.296 14.291
H -1.004 -1.484 14.439
O 0.528 -0.807 15.515
C 0.032 1.499 15.034
H 0.972 1.774 15.003
O -0.766 2.559 15.567
H -0.581 2.603 16.525
C -0.439 1.116 13.652
H -1.42 1.078 13.66
O -0.032 2.127 12.706
H -0.593 1.956 11.919
C 0.082 -0.244 13.234
H 1.041 -0.143 13.053
O -0.535 -0.701 12.016
C 0.662 -2.599 13.982
H 1.576 -2.411 13.724
H 0.676 -3.155 14.776
O 0.001 -3.284 12.933
H 0.569 -4.012 12.612
C 3.726 3.707 3.159
H 4.691 3.761 3.322
C 3.601 5.357 1.441
H 4.558 5.565 1.422
O 3.212 4.946 2.739
C 3.402 2.59 2.174
H 2.425 2.492 2.13
O 3.956 1.353 2.616
H 3.771 1.298 3.579
C 3.905 2.958 0.794
H 4.879 3.058 0.823
O 3.567 1.899 -0.084
H 3.719 2.227 -0.998
C 3.264 4.286 0.389
H 2.295 4.187 0.3
O 3.838 4.775 -0.837
H 3.869 4.04 -1.501
C 2.762 6.641 1.168
H 1.873 6.391 0.879
H 2.681 7.153 1.989
O 3.37 7.448 0.176
H 3.081 8.372 0.338
C 3.129 4.441 8.349
H 2.165 4.387 8.512
C 3.255 2.792 6.631
H 2.298 2.583 6.612
O 3.644 3.202 7.929
C 3.453 5.559 7.364
H 4.431 5.657 7.32
O 2.9 6.796 7.806
H 3.084 6.85 8.769
C 2.95 5.19 5.984
H 1.976 5.09 6.013
O 3.289 6.25 5.106
H 3.136 5.921 4.192
C 3.592 3.862 5.579
H 4.561 3.961 5.49
O 3.017 3.373 4.353
C 4.094 1.507 6.358
H 4.983 1.758 6.069
H 4.175 0.996 7.179
O 3.485 0.701 5.366
H 3.774 -0.224 5.528
C 3.726 3.707 13.539
H 4.691 3.761 13.702
C 3.601 5.357 11.821
H 4.558 5.565 11.802
O 3.212 4.946 13.119
C 3.402 2.59 12.554
H 2.425 2.492 12.51
O 3.956 1.353 12.996
H 3.771 1.298 13.959
C 3.905 2.958 11.174
H 4.879 3.058 11.203
O 3.567 1.899 10.296
H 3.719 2.227 9.382
C 3.264 4.286 10.769
H 2.295 4.187 10.68
O 3.838 4.775 9.543
C 2.762 6.641 11.548
H 1.873 6.391 11.259
H 2.681 7.153 12.369
O 3.37 7.448 10.556
H 3.081 8.372 10.718
C 3.129 4.441 18.729
H 2.165 4.387 18.892
O 3.761 4.656 19.948
H 4.65 4.86 19.753
C 3.255 2.792 17.011
H 2.298 2.583 16.992
O 3.644 3.202 18.309
C 3.453 5.559 17.744
H 4.431 5.657 17.7
O 2.9 6.796 18.186
H 3.084 6.85 19.149
C 2.95 5.19 16.364
H 1.976 5.09 16.393
O 3.289 6.25 15.486
H 3.136 5.921 14.572
C 3.592 3.862 15.959
H 4.561 3.961 15.87
O 3.017 3.373 14.733
C 4.094 1.507 16.738
H 4.983 1.758 16.449
H 4.175 0.996 17.559
O 3.485 0.701 15.746
H 3.774 -0.224 15.908
C 7.932 -0.342 0.449
H 8.877 -0.153 0.621
C 7.839 1.296 -1.279
H 8.788 1.484 -1.131
O 7.256 0.807 -0.055
C 7.752 -1.499 -0.536
H 6.812 -1.774 -0.567
O 8.55 -2.559 -0.003
H 8.365 -2.603 0.955
C 8.223 -1.116 -1.918
H 9.204 -1.078 -1.91
O 7.816 -2.127 -2.864
H 8.377 -1.956 -3.651
C 7.702 0.244 -2.336
H 6.743 0.143 -2.517
O 8.319 0.701 -3.554
H 8.303 -0.03 -4.223
C 7.122 2.599 -1.588
H 6.208 2.411 -1.846
H 7.108 3.155 -0.794
O 7.783 3.284 -2.637
H 7.215 4.012 -2.958
C 7.636 0.342 5.639
H 6.691 0.153 5.811
C 7.729 -1.296 3.911
H 6.78 -1.484 4.059
O 8.312 -0.807 5.135
C 7.816 1.499 4.654
H 8.756 1.774 4.623
O 7.018 2.559 5.187
H 7.203 2.603 6.145
C 7.345 1.116 3.272
H 6.364 1.078 3.28
O 7.752 2.127 2.326
H 7.191 1.956 1.539
C 7.866 -0.244 2.855
H 8.825 -0.143 2.673
O 7.249 -0.701 1.636
C 8.446 -2.599 3.602
H 9.36 -2.411 3.344
H 8.46 -3.155 4.396
O 7.785 -3.284 2.553
H 8.353 -4.012 2.232
C 7.932 -0.342 10.829
H 8.877 -0.153 11.001
C 7.839 1.296 9.101
H 8.788 1.484 9.249
O 7.256 0.807 10.325
C 7.752 -1.499 9.844
H 6.812 -1.774 9.813
O 8.55 -2.559 10.377
H 8.365 -2.603 11.335
C 8.223 -1.116 8.462
H 9.204 -1.078 8.47
O 7.816 -2.127 7.516
H 8.377 -1.956 6.729
C 7.702 0.244 8.045
H 6.743 0.143 7.863
O 8.319 0.701 6.826
C 7.122 2.599 8.792
H 6.208 2.411 8.534
H 7.108 3.155 9.586
O 7.783 3.284 7.743
H 7.215 4.012 7.422
C 7.636 0.342 16.019
H 6.691 0.153 16.191
O 8.235 0.632 17.239
H 9.078 0.979 17.044
C 7.729 -1.296 14.291
H 6.78 -1.484 14.439
O 8.312 -0.807 15.515
C 7.816 1.499 15.034
H 8.756 1.774 15.003
O 7.018 2.559 15.567
H 7.203 2.603 16.525
C 7.345 1.116 13.652
H 6.364 1.078 13.66
O 7.752 2.127 12.706
H 7.191 1.956 11.919
C 7.866 -0.244 13.234
H 8.825 -0.143 13.053
O 7.249 -0.701 12.016
C 8.446 -2.599 13.982
H 9.36 -2.411 13.724
H 8.46 -3.155 14.776
O 7.785 -3.284 12.933
H 8.353 -4.012 12.612
C -0.78 7.806 0.449
H 0.165 7.995 0.621
C -0.874 9.444 -1.279
H 0.076 9.632 -1.131
O -1.456 8.955 -0.055
C -0.96 6.649 -0.536
H -1.9 6.374 -0.567
O -0.162 5.59 -0.003
H -0.347 5.546 0.955
C -0.49 7.032 -1.918
H 0.492 7.07 -1.91
O -0.896 6.022 -2.864
H -0.336 6.193 -3.651
C -1.011 8.393 -2.336
H -1.969 8.292 -2.517
O -0.393 8.849 -3.554
H -0.409 8.118 -4.223
C -1.59 10.748 -1.588
H -2.505 10.559 -1.846
H -1.605 11.303 -0.794
O -0.929 11.432 -2.637
H -1.498 12.16 -2.958
C -1.076 8.491 5.639
H -2.022 8.301 5.811
C -0.983 6.853 3.911
H -1.932 6.664 4.059
O -0.401 7.342 5.135
C -0.897 9.648 4.654
H 0.043 9.922 4.623
O -1.695 10.707 5.187
H -1.51 10.751 6.145
C -1.367 9.265 3.272
H -2.349 9.226 3.28
O -0.961 10.275 2.326
H -1.521 10.104 1.539
C -0.846 7.904 2.855
H 0.112 8.005 2.673
O -1.463 7.448 1.636
C -0.266 5.549 3.602
H 0.648 5.737 3.344
H -0.252 4.993 4.396
O -0.928 4.865 2.553
H -0.359 4.136 2.232
C -0.78 7.806 10.829
H 0.165 7.995 11.001
C -0.874 9.444 9.101
H 0.076 9.632 9.249
O -1.456 8.955 10.325
C -0.96 6.649 9.844
H -1.9 6.374 9.813
O -0.162 5.59 10.377
H -0.347 5.546 11.335
C -0.49 7.032 8.462
H 0.492 7.07 8.47
O -0.896 6.022 7.516
H -0.336 6.193 6.729
C -1.011 8.393 8.045
H -1.969 8.292 7.863
O -0.393 8.849 6.826
C -1.59 10.748 8.792
H -2.505 10.559 8.534
H -1.605 11.303 9.586
O -0.929 11.432 7.743
H -1.498 12.16 7.422
C -1.076 8.491 16.019
H -2.022 8.301 16.191
O -0.478 8.782 17.239
H 0.366 9.128 17.045
C -0.983 6.853 14.291
H -1.932 6.664 14.439
O -0.401 7.342 15.515
C -0.897 9.648 15.034
H 0.043 9.922 15.003
O -1.695 10.707 15.567
H -1.51 10.751 16.525
C -1.367 9.265 13.652
H -2.349 9.226 13.66
O -0.961 10.275 12.706
H -1.521 10.104 11.919
C -0.846 7.904 13.234
H 0.112 8.005 13.053
O -1.463 7.448 12.016
C -0.266 5.549 13.982
H 0.648 5.737 13.724
H -0.252 4.993 14.776
O -0.928 4.865 12.933
H -0.359 4.136 12.612
C 7.004 7.806 0.449
H 7.949 7.995 0.621
C 6.91 9.444 -1.279
H 7.86 9.632 -1.131
O 6.328 8.955 -0.055
C 6.824 6.649 -0.536
H 5.884 6.374 -0.567
O 7.622 5.59 -0.003
H 7.437 5.546 0.955
C 7.294 7.032 -1.918
H 8.276 7.07 -1.91
O 6.888 6.022 -2.864
H 7.448 6.193 -3.651
C 6.773 8.393 -2.336
H 5.815 8.292 -2.517
O 7.391 8.849 -3.554
H 7.375 8.118 -4.223
C 6.194 10.748 -1.588
H 5.279 10.559 -1.846
H 6.179 11.303 -0.794
O 6.855 11.432 -2.637
H 6.286 12.16 -2.958
C 6.708 8.491 5.639
H 5.762 8.301 5.811
C 6.801 6.853 3.911
H 5.852 6.664 4.059
O 7.383 7.342 5.135
C 6.887 9.648 4.654
H 7.827 9.922 4.623
O 6.089 10.707 5.187
H 6.274 10.751 6.145
C 6.417 9.265 3.272
H 5.435 9.226 3.28
O 6.823 10.275 2.326
H 6.263 10.104 1.539
C 6.938 7.904 2.855
H 7.896 8.005 2.673
O 6.321 7.448 1.636
C 7.518 5.549 3.602
H 8.432 5.737 3.344
H 7.532 4.993 4.396
O 6.856 4.865 2.553
H 7.425 4.136 2.232
C 7.004 7.806 10.829
H 7.949 7.995 11.001
C 6.91 9.444 9.101
H 7.86 9.632 9.249
O 6.328 8.955 10.325
C 6.824 6.649 9.844
H 5.884 6.374 9.813
O 7.622 5.59 10.377
H 7.437 5.546 11.335
C 7.294 7.032 8.462
H 8.276 7.07 8.47
O 6.888 6.022 7.516
H 7.448 6.193 6.729
C 6.773 8.393 8.045
H 5.815 8.292 7.863
O 7.391 8.849 6.826
C 6.194 10.748 8.792
H 5.279 10.559 8.534
H 6.179 11.303 9.586
O 6.855 11.432 7.743
H 6.286 12.16 7.422
C 6.708 8.491 16.019
H 5.762 8.301 16.191
O 7.306 8.782 17.239
H 8.15 9.128 17.045
C 6.801 6.853 14.291
H 5.852 6.664 14.439
O 7.383 7.342 15.515
C 6.887 9.648 15.034
H 7.827 9.922 15.003
O 6.089 10.707 15.567
H 6.274 10.751 16.525
C 6.417 9.265 13.652
H 5.435 9.226 13.66
O 6.823 10.275 12.706
H 6.263 10.104 11.919
C 6.938 7.904 13.234
H 7.896 8.005 13.053
O 6.321 7.448 12.016
C 7.518 5.549 13.982
H 8.432 5.737 13.724
H 7.532 4.993 14.776
O 6.856 4.865 12.933
H 7.425 4.136 12.612
